LTspice 24.0.9 for Windows
Circuit: * C:\Users\h_hug\OneDrive\Desktop\amp_de_carga.asc
Start Time: Fri Nov 22 22:04:56 2024
solver = Normal
Maximum thread count: 8
tnom = 27
temp = 27
method = modified trap
WARNING: Node N008 is floating.

WARNING: Less than two connections to node nc_01.  This node is used by rin.
Direct Newton iteration failed to find .op point.  (Use ".option noopiter" to skip.)
Starting Gmin stepping
Gmin = 10
Gmin = 1.07374
Gmin = 0.115292
Gmin = 0.0123794
Gmin = 0.00132923
Gmin = 0.000142725
Gmin = 1.5325e-05
Gmin = 1.6455e-06
Gmin = 1.76685e-07
vernier = 0.5
vernier = 0.25
Gmin = 6.05449e-08
vernier = 0.125
vernier = 0.0625
vernier = 0.03125
vernier = 0.015625
Gmin = 6.16552e-08
vernier = 0.0078125
vernier = 0.00390625
vernier = 0.00195312
vernier = 0.000976562
vernier = 0.000488281
Gmin = 6.18658e-08
Gmin = 0
Gmin stepping succeeded in finding the operating point.

Heightened Def Con from 13.0523 +++++++++++++++++++++++++++++++to 13.0523
Heightened Def Con from 13.0523 +++++++++++++++++++++++++++++++to 13.0523
Heightened Def Con from 13.0523 +++++++++++++++++++++++++++++++to 13.0523
Heightened Def Con from 13.0523 +++++++++++++++++++++++++++++++to 13.0523
Total elapsed time: 15.555 seconds.

